cse-runner-app/src/test/resources/com/farao_community/farao/cse/runner/app/services/network_with_mendrisio_cagno_line.uct
##C 2007.05.01
##N
##ZSI
SMENDR11 SI1          0 2 400.00 0.00000 0.00000 0.00000 0.00000 9000.00 -9000.0 9000.00 -9000.0
SMENDR3T SI2          0 2 155.00 100.000 0.00000 0.00000 0.00000 9000.00 -9000.0 9000.00 -9000.0
SMENDR32 SI3          0 2 155.00 150.000 0.00000 0.00000 0.00000 9000.00 -9000.0 9000.00 -9000.0
##ZDE
DDE1AA1  DE1          0 2 400.00 1250.00 0.00000 -2500.0 0.00000 9000.00 -9000.0 9000.00 -9000.0
DDE2AA1  DE2          0 2 400.00 3000.00 0.00000 -2000.0 0.00000 9000.00 -9000.0 9000.00 -9000.0
DDE3AA1  DE3          0 2 400.00 2000.00 0.00000 -1500.0 0.00000 9000.00 -9000.0 9000.00 -9000.0
##ZFR
FFR1AA1  FR1          0 2 400.00 1000.00 0.00000 -2000.0 0.00000 9000.00 -9000.0 9000.00 -9000.0
FFR2AA1  FR2          0 2 400.00 3500.00 0.00000 -2000.0 0.00000 9000.00 -9000.0 9000.00 -9000.0
FFR3AA1  FR3          0 2 400.00 1500.00 0.00000 -3000.0 0.00000 9000.00 -9000.0 9000.00 -9000.0
##ZNL
NNL1AA1  NL1          0 2 400.00 1000.00 0.00000 -1500.0 0.00000 9000.00 -9000.0 9000.00 -9000.0
NNL2AA1  NL2          0 2 400.00 1000.00 0.00000 -500.00 0.00000 9000.00 -9000.0 9000.00 -9000.0
NNL3AA1  NL3          0 2 400.00 2500.00 0.00000 -2000.0 0.00000 9000.00 -9000.0 9000.00 -9000.0
##ZXX
XME_CA11              0 2 400.00 0.00000 0.00000 0.00000 0.00000 9000.00 -9000.0 9000.00 -9000.0
##L
SMENDR11 XME_CA11 1 0 0.0000 10.000 0.000000   5000
XME_CA11 NNL1AA1  1 0 0.0000 10.000 0.000000   5000
FFR1AA1  FFR2AA1  1 0 0.0000 10.000 0.000000   5000
FFR1AA1  FFR3AA1  1 0 0.0000 10.000 0.000000   5000
FFR2AA1  FFR3AA1  1 0 0.0000 10.000 0.000000   5000
DDE1AA1  DDE2AA1  1 0 0.0000 10.000 0.000000   5000
DDE1AA1  DDE3AA1  1 0 0.0000 10.000 0.000000   5000
NNL1AA1  NNL2AA1  1 0 0.0000 10.000 0.000000   5000
NNL1AA1  NNL3AA1  1 0 0.0000 10.000 0.000000   5000
NNL2AA1  NNL3AA1  1 0 0.0000 10.000 0.000000   5000
FFR2AA1  DDE3AA1  1 0 0.0000 10.000 0.000000   5000
DDE2AA1  NNL3AA1  1 0 0.0000 10.000 0.000000   5000
##T
SMENDR3T SMENDR11 1 0 155.0 400.0 1000. 0.0000 10.000 0.000000 0.0000   5000
SMENDR3T SMENDR32 1 0 155.0 155.0 1000. 0.0000 10.000 0.000000 0.0000   5000
DDE1AA1  SMENDR32 1 0 400.0 155.0 1000. 0.0000 10.000 0.000000 0.0000   5000
DDE2AA1  DDE3AA1  1 0 400.0 400.0 1000. 0.0000 10.000 0.000000 0.0000   5000
##R
SMENDR3T SMENDR32 1                    2.610 -90.0 16 0   300.0 ASYM
DDE2AA1  DDE3AA1  1                    -0.68 90.00 16 0         SYMM